L6/1726539/_ATERRAMENTO.dss
! Aterramento do neutro (no 4) dos secundarios de BT
! Reactor de 0.5 ohm entre o no 4 e a terra (no 0).
New Reactor.NEUTRO_node_1013104986 phases=1 bus1=node_1013104986.4 bus2=node_1013104986.0 R=0.5 X=0
New Reactor.NEUTRO_node_1013105063 phases=1 bus1=node_1013105063.4 bus2=node_1013105063.0 R=0.5 X=0
New Reactor.NEUTRO_node_1016467237 phases=1 bus1=node_1016467237.4 bus2=node_1016467237.0 R=0.5 X=0
New Reactor.NEUTRO_node_1019296977 phases=1 bus1=node_1019296977.4 bus2=node_1019296977.0 R=0.5 X=0
New Reactor.NEUTRO_node_102966416 phases=1 bus1=node_102966416.4 bus2=node_102966416.0 R=0.5 X=0
New Reactor.NEUTRO_node_1035334929 phases=1 bus1=node_1035334929.4 bus2=node_1035334929.0 R=0.5 X=0
New Reactor.NEUTRO_node_1040127111 phases=1 bus1=node_1040127111.4 bus2=node_1040127111.0 R=0.5 X=0
New Reactor.NEUTRO_node_1045116702 phases=1 bus1=node_1045116702.4 bus2=node_1045116702.0 R=0.5 X=0
New Reactor.NEUTRO_node_1045116776 phases=1 bus1=node_1045116776.4 bus2=node_1045116776.0 R=0.5 X=0
New Reactor.NEUTRO_node_1067703160 phases=1 bus1=node_1067703160.4 bus2=node_1067703160.0 R=0.5 X=0
New Reactor.NEUTRO_node_1067785895 phases=1 bus1=node_1067785895.4 bus2=node_1067785895.0 R=0.5 X=0
New Reactor.NEUTRO_node_1070373982 phases=1 bus1=node_1070373982.4 bus2=node_1070373982.0 R=0.5 X=0
New Reactor.NEUTRO_node_1073882272 phases=1 bus1=node_1073882272.4 bus2=node_1073882272.0 R=0.5 X=0
New Reactor.NEUTRO_node_1153454549 phases=1 bus1=node_1153454549.4 bus2=node_1153454549.0 R=0.5 X=0
New Reactor.NEUTRO_node_1155004552 phases=1 bus1=node_1155004552.4 bus2=node_1155004552.0 R=0.5 X=0
New Reactor.NEUTRO_node_1161055376 phases=1 bus1=node_1161055376.4 bus2=node_1161055376.0 R=0.5 X=0
New Reactor.NEUTRO_node_1161059253 phases=1 bus1=node_1161059253.4 bus2=node_1161059253.0 R=0.5 X=0
New Reactor.NEUTRO_node_1166971853 phases=1 bus1=node_1166971853.4 bus2=node_1166971853.0 R=0.5 X=0
New Reactor.NEUTRO_node_1166975220 phases=1 bus1=node_1166975220.4 bus2=node_1166975220.0 R=0.5 X=0
New Reactor.NEUTRO_node_1174267538 phases=1 bus1=node_1174267538.4 bus2=node_1174267538.0 R=0.5 X=0
New Reactor.NEUTRO_node_1174267585 phases=1 bus1=node_1174267585.4 bus2=node_1174267585.0 R=0.5 X=0
New Reactor.NEUTRO_node_1175169147 phases=1 bus1=node_1175169147.4 bus2=node_1175169147.0 R=0.5 X=0
New Reactor.NEUTRO_node_1178059116 phases=1 bus1=node_1178059116.4 bus2=node_1178059116.0 R=0.5 X=0
New Reactor.NEUTRO_node_1183873057 phases=1 bus1=node_1183873057.4 bus2=node_1183873057.0 R=0.5 X=0
New Reactor.NEUTRO_node_1187286730 phases=1 bus1=node_1187286730.4 bus2=node_1187286730.0 R=0.5 X=0
New Reactor.NEUTRO_node_1189932040 phases=1 bus1=node_1189932040.4 bus2=node_1189932040.0 R=0.5 X=0
New Reactor.NEUTRO_node_1191958835 phases=1 bus1=node_1191958835.4 bus2=node_1191958835.0 R=0.5 X=0
New Reactor.NEUTRO_node_1197411977 phases=1 bus1=node_1197411977.4 bus2=node_1197411977.0 R=0.5 X=0
New Reactor.NEUTRO_node_1207769501 phases=1 bus1=node_1207769501.4 bus2=node_1207769501.0 R=0.5 X=0
New Reactor.NEUTRO_node_1212664340 phases=1 bus1=node_1212664340.4 bus2=node_1212664340.0 R=0.5 X=0
New Reactor.NEUTRO_node_1213085099 phases=1 bus1=node_1213085099.4 bus2=node_1213085099.0 R=0.5 X=0
New Reactor.NEUTRO_node_1220354813 phases=1 bus1=node_1220354813.4 bus2=node_1220354813.0 R=0.5 X=0
New Reactor.NEUTRO_node_1228526738 phases=1 bus1=node_1228526738.4 bus2=node_1228526738.0 R=0.5 X=0
New Reactor.NEUTRO_node_1228870065 phases=1 bus1=node_1228870065.4 bus2=node_1228870065.0 R=0.5 X=0
New Reactor.NEUTRO_node_1231984111 phases=1 bus1=node_1231984111.4 bus2=node_1231984111.0 R=0.5 X=0
New Reactor.NEUTRO_node_1255085305 phases=1 bus1=node_1255085305.4 bus2=node_1255085305.0 R=0.5 X=0
New Reactor.NEUTRO_node_1255973641 phases=1 bus1=node_1255973641.4 bus2=node_1255973641.0 R=0.5 X=0
New Reactor.NEUTRO_node_1273518864 phases=1 bus1=node_1273518864.4 bus2=node_1273518864.0 R=0.5 X=0
New Reactor.NEUTRO_node_1273853771 phases=1 bus1=node_1273853771.4 bus2=node_1273853771.0 R=0.5 X=0
New Reactor.NEUTRO_node_1275386837 phases=1 bus1=node_1275386837.4 bus2=node_1275386837.0 R=0.5 X=0
New Reactor.NEUTRO_node_1284648938 phases=1 bus1=node_1284648938.4 bus2=node_1284648938.0 R=0.5 X=0
New Reactor.NEUTRO_node_1302357610 phases=1 bus1=node_1302357610.4 bus2=node_1302357610.0 R=0.5 X=0
New Reactor.NEUTRO_node_1302358129 phases=1 bus1=node_1302358129.4 bus2=node_1302358129.0 R=0.5 X=0
New Reactor.NEUTRO_node_1302358632 phases=1 bus1=node_1302358632.4 bus2=node_1302358632.0 R=0.5 X=0
New Reactor.NEUTRO_node_1302358984 phases=1 bus1=node_1302358984.4 bus2=node_1302358984.0 R=0.5 X=0
New Reactor.NEUTRO_node_1302361146 phases=1 bus1=node_1302361146.4 bus2=node_1302361146.0 R=0.5 X=0
New Reactor.NEUTRO_node_1312113319 phases=1 bus1=node_1312113319.4 bus2=node_1312113319.0 R=0.5 X=0
New Reactor.NEUTRO_node_1312131835 phases=1 bus1=node_1312131835.4 bus2=node_1312131835.0 R=0.5 X=0
New Reactor.NEUTRO_node_1312132886 phases=1 bus1=node_1312132886.4 bus2=node_1312132886.0 R=0.5 X=0
New Reactor.NEUTRO_node_1317824327 phases=1 bus1=node_1317824327.4 bus2=node_1317824327.0 R=0.5 X=0
New Reactor.NEUTRO_node_1321780153 phases=1 bus1=node_1321780153.4 bus2=node_1321780153.0 R=0.5 X=0
New Reactor.NEUTRO_node_1384471774 phases=1 bus1=node_1384471774.4 bus2=node_1384471774.0 R=0.5 X=0
New Reactor.NEUTRO_node_1389874100 phases=1 bus1=node_1389874100.4 bus2=node_1389874100.0 R=0.5 X=0
New Reactor.NEUTRO_node_1389874234 phases=1 bus1=node_1389874234.4 bus2=node_1389874234.0 R=0.5 X=0
New Reactor.NEUTRO_node_1415100719 phases=1 bus1=node_1415100719.4 bus2=node_1415100719.0 R=0.5 X=0
New Reactor.NEUTRO_node_1428747086 phases=1 bus1=node_1428747086.4 bus2=node_1428747086.0 R=0.5 X=0
New Reactor.NEUTRO_node_1428747217 phases=1 bus1=node_1428747217.4 bus2=node_1428747217.0 R=0.5 X=0
New Reactor.NEUTRO_node_1428747304 phases=1 bus1=node_1428747304.4 bus2=node_1428747304.0 R=0.5 X=0
New Reactor.NEUTRO_node_1433281514 phases=1 bus1=node_1433281514.4 bus2=node_1433281514.0 R=0.5 X=0
New Reactor.NEUTRO_node_1437378190 phases=1 bus1=node_1437378190.4 bus2=node_1437378190.0 R=0.5 X=0
New Reactor.NEUTRO_node_1439065403 phases=1 bus1=node_1439065403.4 bus2=node_1439065403.0 R=0.5 X=0
New Reactor.NEUTRO_node_1440263496 phases=1 bus1=node_1440263496.4 bus2=node_1440263496.0 R=0.5 X=0
New Reactor.NEUTRO_node_1440263532 phases=1 bus1=node_1440263532.4 bus2=node_1440263532.0 R=0.5 X=0
New Reactor.NEUTRO_node_1447329876 phases=1 bus1=node_1447329876.4 bus2=node_1447329876.0 R=0.5 X=0
New Reactor.NEUTRO_node_1457349653 phases=1 bus1=node_1457349653.4 bus2=node_1457349653.0 R=0.5 X=0
New Reactor.NEUTRO_node_1457350917 phases=1 bus1=node_1457350917.4 bus2=node_1457350917.0 R=0.5 X=0
New Reactor.NEUTRO_node_1457350981 phases=1 bus1=node_1457350981.4 bus2=node_1457350981.0 R=0.5 X=0
New Reactor.NEUTRO_node_1457351593 phases=1 bus1=node_1457351593.4 bus2=node_1457351593.0 R=0.5 X=0
New Reactor.NEUTRO_node_1457351736 phases=1 bus1=node_1457351736.4 bus2=node_1457351736.0 R=0.5 X=0
New Reactor.NEUTRO_node_1518933857 phases=1 bus1=node_1518933857.4 bus2=node_1518933857.0 R=0.5 X=0
New Reactor.NEUTRO_node_1568057341 phases=1 bus1=node_1568057341.4 bus2=node_1568057341.0 R=0.5 X=0
New Reactor.NEUTRO_node_1572960905 phases=1 bus1=node_1572960905.4 bus2=node_1572960905.0 R=0.5 X=0
New Reactor.NEUTRO_node_1602323339 phases=1 bus1=node_1602323339.4 bus2=node_1602323339.0 R=0.5 X=0
New Reactor.NEUTRO_node_1609228197 phases=1 bus1=node_1609228197.4 bus2=node_1609228197.0 R=0.5 X=0
New Reactor.NEUTRO_node_1609228230 phases=1 bus1=node_1609228230.4 bus2=node_1609228230.0 R=0.5 X=0
New Reactor.NEUTRO_node_1615711970 phases=1 bus1=node_1615711970.4 bus2=node_1615711970.0 R=0.5 X=0
New Reactor.NEUTRO_node_1644314855 phases=1 bus1=node_1644314855.4 bus2=node_1644314855.0 R=0.5 X=0
New Reactor.NEUTRO_node_1645722918 phases=1 bus1=node_1645722918.4 bus2=node_1645722918.0 R=0.5 X=0
New Reactor.NEUTRO_node_1648084581 phases=1 bus1=node_1648084581.4 bus2=node_1648084581.0 R=0.5 X=0
New Reactor.NEUTRO_node_1648677121 phases=1 bus1=node_1648677121.4 bus2=node_1648677121.0 R=0.5 X=0
New Reactor.NEUTRO_node_1653112898 phases=1 bus1=node_1653112898.4 bus2=node_1653112898.0 R=0.5 X=0
New Reactor.NEUTRO_node_1653181821 phases=1 bus1=node_1653181821.4 bus2=node_1653181821.0 R=0.5 X=0
New Reactor.NEUTRO_node_1666218128 phases=1 bus1=node_1666218128.4 bus2=node_1666218128.0 R=0.5 X=0
New Reactor.NEUTRO_node_1666965591 phases=1 bus1=node_1666965591.4 bus2=node_1666965591.0 R=0.5 X=0
New Reactor.NEUTRO_node_1668274952 phases=1 bus1=node_1668274952.4 bus2=node_1668274952.0 R=0.5 X=0
New Reactor.NEUTRO_node_1682170410 phases=1 bus1=node_1682170410.4 bus2=node_1682170410.0 R=0.5 X=0
New Reactor.NEUTRO_node_1684076837 phases=1 bus1=node_1684076837.4 bus2=node_1684076837.0 R=0.5 X=0
New Reactor.NEUTRO_node_1689315641 phases=1 bus1=node_1689315641.4 bus2=node_1689315641.0 R=0.5 X=0
New Reactor.NEUTRO_node_1691299261 phases=1 bus1=node_1691299261.4 bus2=node_1691299261.0 R=0.5 X=0
New Reactor.NEUTRO_node_1703361447 phases=1 bus1=node_1703361447.4 bus2=node_1703361447.0 R=0.5 X=0
New Reactor.NEUTRO_node_1708187563 phases=1 bus1=node_1708187563.4 bus2=node_1708187563.0 R=0.5 X=0
New Reactor.NEUTRO_node_1714779034 phases=1 bus1=node_1714779034.4 bus2=node_1714779034.0 R=0.5 X=0
New Reactor.NEUTRO_node_1715268398 phases=1 bus1=node_1715268398.4 bus2=node_1715268398.0 R=0.5 X=0
New Reactor.NEUTRO_node_1719957604 phases=1 bus1=node_1719957604.4 bus2=node_1719957604.0 R=0.5 X=0
New Reactor.NEUTRO_node_1723075055 phases=1 bus1=node_1723075055.4 bus2=node_1723075055.0 R=0.5 X=0
New Reactor.NEUTRO_node_1723418686 phases=1 bus1=node_1723418686.4 bus2=node_1723418686.0 R=0.5 X=0
New Reactor.NEUTRO_node_1723494723 phases=1 bus1=node_1723494723.4 bus2=node_1723494723.0 R=0.5 X=0
New Reactor.NEUTRO_node_1724771039 phases=1 bus1=node_1724771039.4 bus2=node_1724771039.0 R=0.5 X=0
New Reactor.NEUTRO_node_1729202904 phases=1 bus1=node_1729202904.4 bus2=node_1729202904.0 R=0.5 X=0
New Reactor.NEUTRO_node_1729203083 phases=1 bus1=node_1729203083.4 bus2=node_1729203083.0 R=0.5 X=0
New Reactor.NEUTRO_node_1729203194 phases=1 bus1=node_1729203194.4 bus2=node_1729203194.0 R=0.5 X=0
New Reactor.NEUTRO_node_1729890886 phases=1 bus1=node_1729890886.4 bus2=node_1729890886.0 R=0.5 X=0
New Reactor.NEUTRO_node_1731075004 phases=1 bus1=node_1731075004.4 bus2=node_1731075004.0 R=0.5 X=0
New Reactor.NEUTRO_node_1731873536 phases=1 bus1=node_1731873536.4 bus2=node_1731873536.0 R=0.5 X=0
New Reactor.NEUTRO_node_1734145352 phases=1 bus1=node_1734145352.4 bus2=node_1734145352.0 R=0.5 X=0
New Reactor.NEUTRO_node_1739765746 phases=1 bus1=node_1739765746.4 bus2=node_1739765746.0 R=0.5 X=0
New Reactor.NEUTRO_node_1740083565 phases=1 bus1=node_1740083565.4 bus2=node_1740083565.0 R=0.5 X=0
New Reactor.NEUTRO_node_1743072077 phases=1 bus1=node_1743072077.4 bus2=node_1743072077.0 R=0.5 X=0
New Reactor.NEUTRO_node_1744154246 phases=1 bus1=node_1744154246.4 bus2=node_1744154246.0 R=0.5 X=0
New Reactor.NEUTRO_node_1768686665 phases=1 bus1=node_1768686665.4 bus2=node_1768686665.0 R=0.5 X=0
New Reactor.NEUTRO_node_1768686759 phases=1 bus1=node_1768686759.4 bus2=node_1768686759.0 R=0.5 X=0
New Reactor.NEUTRO_node_1768687242 phases=1 bus1=node_1768687242.4 bus2=node_1768687242.0 R=0.5 X=0
New Reactor.NEUTRO_node_1768687337 phases=1 bus1=node_1768687337.4 bus2=node_1768687337.0 R=0.5 X=0
New Reactor.NEUTRO_node_1768687473 phases=1 bus1=node_1768687473.4 bus2=node_1768687473.0 R=0.5 X=0
New Reactor.NEUTRO_node_1768687641 phases=1 bus1=node_1768687641.4 bus2=node_1768687641.0 R=0.5 X=0
New Reactor.NEUTRO_node_1768687826 phases=1 bus1=node_1768687826.4 bus2=node_1768687826.0 R=0.5 X=0
New Reactor.NEUTRO_node_1768687838 phases=1 bus1=node_1768687838.4 bus2=node_1768687838.0 R=0.5 X=0
New Reactor.NEUTRO_node_1768688135 phases=1 bus1=node_1768688135.4 bus2=node_1768688135.0 R=0.5 X=0
New Reactor.NEUTRO_node_1769189632 phases=1 bus1=node_1769189632.4 bus2=node_1769189632.0 R=0.5 X=0
New Reactor.NEUTRO_node_1769189635 phases=1 bus1=node_1769189635.4 bus2=node_1769189635.0 R=0.5 X=0
New Reactor.NEUTRO_node_1769190251 phases=1 bus1=node_1769190251.4 bus2=node_1769190251.0 R=0.5 X=0
New Reactor.NEUTRO_node_1769190447 phases=1 bus1=node_1769190447.4 bus2=node_1769190447.0 R=0.5 X=0
New Reactor.NEUTRO_node_1769190537 phases=1 bus1=node_1769190537.4 bus2=node_1769190537.0 R=0.5 X=0
New Reactor.NEUTRO_node_1769190694 phases=1 bus1=node_1769190694.4 bus2=node_1769190694.0 R=0.5 X=0
New Reactor.NEUTRO_node_1769243194 phases=1 bus1=node_1769243194.4 bus2=node_1769243194.0 R=0.5 X=0
New Reactor.NEUTRO_node_1769621954 phases=1 bus1=node_1769621954.4 bus2=node_1769621954.0 R=0.5 X=0
New Reactor.NEUTRO_node_1769623011 phases=1 bus1=node_1769623011.4 bus2=node_1769623011.0 R=0.5 X=0
New Reactor.NEUTRO_node_1769623502 phases=1 bus1=node_1769623502.4 bus2=node_1769623502.0 R=0.5 X=0
New Reactor.NEUTRO_node_1769623781 phases=1 bus1=node_1769623781.4 bus2=node_1769623781.0 R=0.5 X=0
New Reactor.NEUTRO_node_1769624252 phases=1 bus1=node_1769624252.4 bus2=node_1769624252.0 R=0.5 X=0
New Reactor.NEUTRO_node_1769624261 phases=1 bus1=node_1769624261.4 bus2=node_1769624261.0 R=0.5 X=0
New Reactor.NEUTRO_node_1784032694 phases=1 bus1=node_1784032694.4 bus2=node_1784032694.0 R=0.5 X=0
New Reactor.NEUTRO_node_1785939824 phases=1 bus1=node_1785939824.4 bus2=node_1785939824.0 R=0.5 X=0
New Reactor.NEUTRO_node_1785939883 phases=1 bus1=node_1785939883.4 bus2=node_1785939883.0 R=0.5 X=0
New Reactor.NEUTRO_node_1787749542 phases=1 bus1=node_1787749542.4 bus2=node_1787749542.0 R=0.5 X=0
New Reactor.NEUTRO_node_1792882247 phases=1 bus1=node_1792882247.4 bus2=node_1792882247.0 R=0.5 X=0
New Reactor.NEUTRO_node_1804253776 phases=1 bus1=node_1804253776.4 bus2=node_1804253776.0 R=0.5 X=0
New Reactor.NEUTRO_node_1820389819 phases=1 bus1=node_1820389819.4 bus2=node_1820389819.0 R=0.5 X=0
New Reactor.NEUTRO_node_1821085544 phases=1 bus1=node_1821085544.4 bus2=node_1821085544.0 R=0.5 X=0
New Reactor.NEUTRO_node_1821686603 phases=1 bus1=node_1821686603.4 bus2=node_1821686603.0 R=0.5 X=0
New Reactor.NEUTRO_node_1823142438 phases=1 bus1=node_1823142438.4 bus2=node_1823142438.0 R=0.5 X=0
New Reactor.NEUTRO_node_1877062041 phases=1 bus1=node_1877062041.4 bus2=node_1877062041.0 R=0.5 X=0
New Reactor.NEUTRO_node_1884237383 phases=1 bus1=node_1884237383.4 bus2=node_1884237383.0 R=0.5 X=0
New Reactor.NEUTRO_node_1887554203 phases=1 bus1=node_1887554203.4 bus2=node_1887554203.0 R=0.5 X=0
New Reactor.NEUTRO_node_1887818748 phases=1 bus1=node_1887818748.4 bus2=node_1887818748.0 R=0.5 X=0
New Reactor.NEUTRO_node_1889438736 phases=1 bus1=node_1889438736.4 bus2=node_1889438736.0 R=0.5 X=0
New Reactor.NEUTRO_node_1899038850 phases=1 bus1=node_1899038850.4 bus2=node_1899038850.0 R=0.5 X=0
New Reactor.NEUTRO_node_1901967206 phases=1 bus1=node_1901967206.4 bus2=node_1901967206.0 R=0.5 X=0
New Reactor.NEUTRO_node_1904307455 phases=1 bus1=node_1904307455.4 bus2=node_1904307455.0 R=0.5 X=0
New Reactor.NEUTRO_node_1904788840 phases=1 bus1=node_1904788840.4 bus2=node_1904788840.0 R=0.5 X=0
New Reactor.NEUTRO_node_1904789098 phases=1 bus1=node_1904789098.4 bus2=node_1904789098.0 R=0.5 X=0
New Reactor.NEUTRO_node_1906832367 phases=1 bus1=node_1906832367.4 bus2=node_1906832367.0 R=0.5 X=0
New Reactor.NEUTRO_node_1911087046 phases=1 bus1=node_1911087046.4 bus2=node_1911087046.0 R=0.5 X=0
New Reactor.NEUTRO_node_1941481308 phases=1 bus1=node_1941481308.4 bus2=node_1941481308.0 R=0.5 X=0
New Reactor.NEUTRO_node_1941481824 phases=1 bus1=node_1941481824.4 bus2=node_1941481824.0 R=0.5 X=0
New Reactor.NEUTRO_node_1955672337 phases=1 bus1=node_1955672337.4 bus2=node_1955672337.0 R=0.5 X=0
New Reactor.NEUTRO_node_1970843403 phases=1 bus1=node_1970843403.4 bus2=node_1970843403.0 R=0.5 X=0
New Reactor.NEUTRO_node_1975344267 phases=1 bus1=node_1975344267.4 bus2=node_1975344267.0 R=0.5 X=0
New Reactor.NEUTRO_node_1977757377 phases=1 bus1=node_1977757377.4 bus2=node_1977757377.0 R=0.5 X=0
New Reactor.NEUTRO_node_1979040259 phases=1 bus1=node_1979040259.4 bus2=node_1979040259.0 R=0.5 X=0
New Reactor.NEUTRO_node_1986490400 phases=1 bus1=node_1986490400.4 bus2=node_1986490400.0 R=0.5 X=0
New Reactor.NEUTRO_node_1998079967 phases=1 bus1=node_1998079967.4 bus2=node_1998079967.0 R=0.5 X=0
New Reactor.NEUTRO_node_2002640107 phases=1 bus1=node_2002640107.4 bus2=node_2002640107.0 R=0.5 X=0
New Reactor.NEUTRO_node_2012267279 phases=1 bus1=node_2012267279.4 bus2=node_2012267279.0 R=0.5 X=0
New Reactor.NEUTRO_node_2016896139 phases=1 bus1=node_2016896139.4 bus2=node_2016896139.0 R=0.5 X=0
New Reactor.NEUTRO_node_2019137703 phases=1 bus1=node_2019137703.4 bus2=node_2019137703.0 R=0.5 X=0
New Reactor.NEUTRO_node_2019267378 phases=1 bus1=node_2019267378.4 bus2=node_2019267378.0 R=0.5 X=0
New Reactor.NEUTRO_node_2020176883 phases=1 bus1=node_2020176883.4 bus2=node_2020176883.0 R=0.5 X=0
New Reactor.NEUTRO_node_2026360135 phases=1 bus1=node_2026360135.4 bus2=node_2026360135.0 R=0.5 X=0
New Reactor.NEUTRO_node_2026463229 phases=1 bus1=node_2026463229.4 bus2=node_2026463229.0 R=0.5 X=0
New Reactor.NEUTRO_node_2027086494 phases=1 bus1=node_2027086494.4 bus2=node_2027086494.0 R=0.5 X=0
New Reactor.NEUTRO_node_2028163605 phases=1 bus1=node_2028163605.4 bus2=node_2028163605.0 R=0.5 X=0
New Reactor.NEUTRO_node_2040199692 phases=1 bus1=node_2040199692.4 bus2=node_2040199692.0 R=0.5 X=0
New Reactor.NEUTRO_node_2045644515 phases=1 bus1=node_2045644515.4 bus2=node_2045644515.0 R=0.5 X=0
New Reactor.NEUTRO_node_2049964215 phases=1 bus1=node_2049964215.4 bus2=node_2049964215.0 R=0.5 X=0
New Reactor.NEUTRO_node_2074015686 phases=1 bus1=node_2074015686.4 bus2=node_2074015686.0 R=0.5 X=0
New Reactor.NEUTRO_node_2093338091 phases=1 bus1=node_2093338091.4 bus2=node_2093338091.0 R=0.5 X=0
New Reactor.NEUTRO_node_2101376400 phases=1 bus1=node_2101376400.4 bus2=node_2101376400.0 R=0.5 X=0
New Reactor.NEUTRO_node_2104395052 phases=1 bus1=node_2104395052.4 bus2=node_2104395052.0 R=0.5 X=0
New Reactor.NEUTRO_node_2108045004 phases=1 bus1=node_2108045004.4 bus2=node_2108045004.0 R=0.5 X=0
New Reactor.NEUTRO_node_2109238638 phases=1 bus1=node_2109238638.4 bus2=node_2109238638.0 R=0.5 X=0
New Reactor.NEUTRO_node_2109423248 phases=1 bus1=node_2109423248.4 bus2=node_2109423248.0 R=0.5 X=0
New Reactor.NEUTRO_node_2109518018 phases=1 bus1=node_2109518018.4 bus2=node_2109518018.0 R=0.5 X=0
New Reactor.NEUTRO_node_2110758723 phases=1 bus1=node_2110758723.4 bus2=node_2110758723.0 R=0.5 X=0
New Reactor.NEUTRO_node_2110759250 phases=1 bus1=node_2110759250.4 bus2=node_2110759250.0 R=0.5 X=0
New Reactor.NEUTRO_node_2130985194 phases=1 bus1=node_2130985194.4 bus2=node_2130985194.0 R=0.5 X=0
New Reactor.NEUTRO_node_2132683951 phases=1 bus1=node_2132683951.4 bus2=node_2132683951.0 R=0.5 X=0
New Reactor.NEUTRO_node_2132683952 phases=1 bus1=node_2132683952.4 bus2=node_2132683952.0 R=0.5 X=0
New Reactor.NEUTRO_node_2135135936 phases=1 bus1=node_2135135936.4 bus2=node_2135135936.0 R=0.5 X=0
New Reactor.NEUTRO_node_2136016011 phases=1 bus1=node_2136016011.4 bus2=node_2136016011.0 R=0.5 X=0
New Reactor.NEUTRO_node_2136068643 phases=1 bus1=node_2136068643.4 bus2=node_2136068643.0 R=0.5 X=0
New Reactor.NEUTRO_node_2136068768 phases=1 bus1=node_2136068768.4 bus2=node_2136068768.0 R=0.5 X=0
New Reactor.NEUTRO_node_2136069046 phases=1 bus1=node_2136069046.4 bus2=node_2136069046.0 R=0.5 X=0
New Reactor.NEUTRO_node_2138382490 phases=1 bus1=node_2138382490.4 bus2=node_2138382490.0 R=0.5 X=0
New Reactor.NEUTRO_node_2139932118 phases=1 bus1=node_2139932118.4 bus2=node_2139932118.0 R=0.5 X=0
New Reactor.NEUTRO_node_2139932186 phases=1 bus1=node_2139932186.4 bus2=node_2139932186.0 R=0.5 X=0
New Reactor.NEUTRO_node_2142332963 phases=1 bus1=node_2142332963.4 bus2=node_2142332963.0 R=0.5 X=0
New Reactor.NEUTRO_node_2145896771 phases=1 bus1=node_2145896771.4 bus2=node_2145896771.0 R=0.5 X=0
New Reactor.NEUTRO_node_2154729220 phases=1 bus1=node_2154729220.4 bus2=node_2154729220.0 R=0.5 X=0
New Reactor.NEUTRO_node_2154729367 phases=1 bus1=node_2154729367.4 bus2=node_2154729367.0 R=0.5 X=0
...
